*SPEF "1481-1998"
*DESIGN "project"
*DATE "Sun Apr  5 15:47:34 2026"
*VENDOR "Synopsys, Inc."
*PROGRAM "icc2 /home/synopsis_install/icc2/W-2024.09/linux64/nwtn/bin/icc2_exec"
*VERSION "W-2024.09 Aug 25, 2024"
*DESIGN_FLOW "ICC2 SPEF DR"
*DIVIDER /
*DELIMITER :
*BUS_DELIMITER [ ]
*T_UNIT 1 NS
*C_UNIT 1 FF
*R_UNIT 1 OHM
*L_UNIT 1 HENRY

// XY_UNIT 1 UM
// PARASITIC_TECH p2 at 125.000 degree

*NAME_MAP
*1 clk
*2 rst
*3 x[2]
*4 x[1]
*5 x[0]
*6 y[7]
*7 y[6]
*8 y[5]
*9 y[4]
*10 y[3]
*11 y[2]
*12 y[1]
*13 y[0]
*14 VDD
*15 VSS
*16 x_reg_reg[1]
*17 x_reg_reg[0]
*18 x_reg_reg[2]
*19 y_reg[4]
*20 y_reg[6]
*21 y_reg[7]
*22 y_reg[5]
*23 y_reg[3]
*24 y_reg[1]
*25 y_reg[2]
*26 y_reg[0]
*27 U18
*28 U19
*29 U20
*30 U21
*31 U22
*32 U23
*33 U24
*34 ropt_h_inst_639
*35 ropt_h_inst_640
*36 ropt_h_inst_641
*37 U28
*38 U40
*39 ctmTdsLR_1_280
*40 ropt_h_inst_642
*41 ropt_h_inst_643
*42 ropt_h_inst_644
*43 ropt_h_inst_645
*44 ropt_h_inst_646
*45 ropt_h_inst_647
*46 ropt_net_0
*47 ropt_net_1
*48 N54
*49 n5
*50 n6
*51 n7
*52 n8
*53 n9
*54 n10
*55 ropt_net_2
*56 n12
*57 n13
*58 n14
*59 n27
*60 n28
*61 x_reg[2]
*62 x_reg[1]
*63 x_reg[0]
*64 ropt_net_3
*65 ropt_net_4
*66 ropt_net_5
*67 ropt_net_6
*68 ropt_net_7
*69 ropt_net_8

*PORTS

*1 I *C 7.776 0.143
*2 I *C 10.968 0.143
*3 I *C 11.880 0.143
*4 I *C 2.456 0.143
*5 I *C 3.976 0.143
*6 O *C 13.400 0.143
*7 O *C 11.272 0.143
*8 O *C 5.800 0.143
*9 O *C 17.537 6.864
*10 O *C 13.096 10.545
*11 O *C 10.697 14.160
*12 O *C 5.800 17.233
*13 O *C 10.697 12.336
*14 I *C 8.840 8.688
*15 I *C 8.840 8.688

*D_NET *46 0.8321531 //LENGTH 9.642 LUMPCC 0 DR

*CONN
*I *34:Y O *L 0 *C 15.528 6.408
*I *19:SETB I *L 0.55078 *C 11.561 4.440
*N *46:2 *C 11.287 4.432
*N *46:3 *C 11.272 4.446
*N *46:4 *C 11.272 7.763
*N *46:5 *C 11.286 7.776
*N *46:6 *C 15.514 7.776
*N *46:7 *C 15.528 7.763
*N *46:8 *C 15.528 6.421

*CAP
0 *34:Y 0.001
1 *19:SETB 0.01887539
2 *46:2 0.01728127
3 *46:3 0.1870864
4 *46:4 0.1869015
5 *46:5 0.1404257
6 *46:6 0.1404257
7 *46:7 0.07065031
8 *46:8 0.06950679

*RES
0 *34:Y *46:8 1
1 *46:2 *19:SETB 0.548
2 *46:3 *46:2 1
3 *46:4 *46:3 5.923214
4 *46:5 *46:4 0.5
5 *46:7 *46:6 0.5
6 *46:6 *46:5 7.551786
7 *46:8 *46:7 2.394643

*END

*D_NET *47 1.525767 //LENGTH 19.401 LUMPCC 0 DR

*CONN
*I *35:Y O *L 0 *C 3.672 7.593
*I *31:A1 I *L 0.6782 *C 7.928 4.584
*I *30:A1 I *L 0.6782 *C 10.360 4.584
*I *39:A2 I *L 0.568576 *C 7.776 11.272
*I *32:A2 I *L 0.567721 *C 8.384 12.792
*I *33:A1 I *L 0.621599 *C 5.344 9.570
*N *47:6 *C 5.344 9.556
*N *47:7 *C 8.384 12.779
*N *47:8 *C 8.384 11.742
*N *47:9 *C 8.370 11.728
*N *47:10 *C 7.790 11.728
*N *47:11 *C 7.776 11.715
*N *47:12 *C 7.776 11.272
*N *47:13 *C 7.776 9.005
*N *47:14 *C 7.763 8.992
*N *47:15 *C 10.360 4.585
*N *47:16 *C 10.360 4.723
*N *47:17 *C 10.347 4.736
*N *47:18 *C 7.928 4.585
*N *47:19 *C 7.928 4.723
*N *47:20 *C 7.928 4.736
*N *47:21 *C 7.182 4.736
*N *47:22 *C 7.168 4.750
*N *47:23 *C 7.168 8.979
*N *47:24 *C 7.168 8.992
*N *47:25 *C 5.357 8.992
*N *47:26 *C 5.344 8.992
*N *47:27 *C 5.344 8.702
*N *47:28 *C 5.331 8.688
*N *47:29 *C 3.686 8.688
*N *47:30 *C 3.672 8.675
*N *47:31 *C 3.672 7.607

*CAP
0 *35:Y 0.001
1 *31:A1 0.001
2 *30:A1 0.001
3 *39:A2 0.001
4 *32:A2 0.001
5 *33:A1 0.001
6 *47:6 0.02253672
7 *47:7 0.06200639
8 *47:8 0.06314991
9 *47:9 0.02268572
10 *47:10 0.02268572
11 *47:11 0.01926106
12 *47:12 0.1398183
13 *47:13 0.1199217
14 *47:14 0.02592283
15 *47:15 0.008570922
16 *47:16 0.009714453
17 *47:17 0.09647867
18 *47:18 0.008017998
19 *47:19 0.009161529
20 *47:20 0.1313431
21 *47:21 0.0330855
22 *47:22 0.1467404
23 *47:23 0.1467404
24 *47:24 0.1035068
25 *47:25 0.07580479
26 *47:26 0.03665543
27 *47:27 0.01199321
28 *47:28 0.0603941
29 *47:29 0.0603941
30 *47:30 0.04216021
31 *47:31 0.04101668

*RES
0 *35:Y *47:31 1
1 *47:16 *47:15 0.2455357
2 *47:17 *47:16 0.5
3 *47:15 *30:A1 1
4 *47:19 *47:18 0.2455357
5 *47:20 *47:19 0.5
6 *47:20 *47:17 4.31875
7 *47:18 *31:A1 1
8 *47:11 *47:10 0.5
9 *47:10 *47:9 1.0375
10 *47:8 *47:7 1.851786
11 *47:9 *47:8 0.5
12 *47:7 *32:A2 1
13 *47:12 *39:A2 1
14 *47:12 *47:11 0.7901786
15 *47:13 *47:12 4.047322
16 *47:14 *47:13 0.5
17 *47:21 *47:20 1.333036
18 *47:22 *47:21 0.5
19 *47:24 *47:23 0.5
20 *47:24 *47:14 1.061607
21 *47:23 *47:22 7.551786
22 *47:6 *33:A1 1
23 *47:26 *47:25 0.5
24 *47:26 *47:6 1.008036
25 *47:25 *47:24 3.233036
26 *47:27 *47:26 0.5187501
27 *47:28 *47:27 0.5
28 *47:30 *47:29 0.5
29 *47:29 *47:28 2.9375
30 *47:31 *47:30 1.907143

*END

*D_NET *1 3.29263 //LENGTH 47.600 LUMPCC 0 DR

*CONN
*P *1 I *L 0 *C 7.776 0.258
*I *20:CLK I *L 0.717204 *C 7.472 2.152
*I *22:CLK I *L 0.717204 *C 3.216 2.152
*I *17:CLK I *L 0.717204 *C 3.064 5.192
*I *16:CLK I *L 0.717204 *C 3.064 5.496
*I *19:CLK I *L 0.717204 *C 12.488 5.192
*I *23:CLK I *L 0.717204 *C 12.488 8.536
*I *18:CLK I *L 0.717204 *C 12.488 2.152
*I *21:CLK I *L 0.717204 *C 8.536 5.496
*I *25:CLK I *L 0.717204 *C 3.064 15.224
*I *24:CLK I *L 0.717204 *C 3.064 11.880
*I *26:CLK I *L 0.717204 *C 4.584 12.184
*N *1:12 *C 7.594 0.480
*N *1:13 *C 4.584 12.171
*N *1:14 *C 3.064 11.867
*N *1:15 *C 3.064 11.728
*N *1:16 *C 3.077 11.728
*N *1:17 *C 3.064 15.211
*N *1:18 *C 3.064 14.174
*N *1:19 *C 3.064 14.160
*N *1:20 *C 3.204 14.160
*N *1:21 *C 3.216 14.147
*N *1:22 *C 3.216 11.742
*N *1:23 *C 3.230 11.728
*N *1:24 *C 5.648 11.728
*N *1:25 *C 5.648 12.032
*N *1:26 *C 4.598 12.032
*N *1:27 *C 4.584 12.031
*N *1:28 *C 4.584 8.094
*N *1:29 *C 4.598 8.080
*N *1:30 *C 7.763 8.080
*N *1:31 *C 7.776 8.066
*N *1:32 *C 8.536 5.496
*N *1:33 *C 8.536 5.636
*N *1:34 *C 8.523 5.648
*N *1:35 *C 7.790 5.648
*N *1:36 *C 7.776 5.648
*N *1:37 *C 12.488 2.153
*N *1:38 *C 12.488 2.291
*N *1:39 *C 12.475 2.304
*N *1:40 *C 12.488 8.535
*N *1:41 *C 12.488 7.486
*N *1:42 *C 12.475 7.472
*N *1:43 *C 12.046 7.472
*N *1:44 *C 12.032 7.459
*N *1:45 *C 12.488 5.191
*N *1:46 *C 12.488 5.054
*N *1:47 *C 12.475 5.040
*N *1:48 *C 12.046 5.040
*N *1:49 *C 12.032 5.040
*N *1:50 *C 12.032 2.317
*N *1:51 *C 12.032 2.304
*N *1:52 *C 3.034 4.128
*N *1:53 *C 3.064 5.482
*N *1:54 *C 3.064 5.206
*N *1:55 *C 3.064 5.344
*N *1:56 *C 3.216 5.344
*N *1:57 *C 3.216 4.142
*N *1:58 *C 3.204 4.128
*N *1:59 *C 3.216 4.115
*N *1:60 *C 3.216 2.317
*N *1:61 *C 3.216 2.152
*N *1:62 *C 3.216 2.292
*N *1:63 *C 3.229 2.304
*N *1:64 *C 3.369 2.304
*N *1:65 *C 7.472 2.153
*N *1:66 *C 7.472 2.291
*N *1:67 *C 7.472 2.304
*N *1:68 *C 7.776 2.304
*N *1:69 *C 7.776 2.304
*N *1:70 *C 7.776 0.494
*N *1:71 *C 7.764 0.480
*N *1:72 *C 7.776 0.467

*CAP
0 *1 0.0103749
1 *20:CLK 0.001
2 *22:CLK 0.001
3 *17:CLK 0.001
4 *16:CLK 0.001
5 *19:CLK 0.001
6 *23:CLK 0.001
7 *18:CLK 0.001
8 *21:CLK 0.001
9 *25:CLK 0.001
10 *24:CLK 0.001
11 *26:CLK 0.001
12 *1:12 0.008803378
13 *1:13 0.006980702
14 *1:14 0.007733845
15 *1:15 0.008877376
16 *1:16 0.007061576
17 *1:17 0.04218234
18 *1:18 0.04332587
19 *1:19 0.007717051
20 *1:20 0.007717152
21 *1:21 0.07581447
22 *1:22 0.07581447
23 *1:23 0.08957361
24 *1:24 0.09375442
25 *1:25 0.053812
26 *1:26 0.04079049
27 *1:27 0.1840303
28 *1:28 0.1741271
29 *1:29 0.1182264
30 *1:30 0.1182265
31 *1:31 0.09306422
32 *1:32 0.01387989
33 *1:33 0.01502343
34 *1:34 0.03395561
35 *1:35 0.03395571
36 *1:36 0.2054848
37 *1:37 0.007017055
38 *1:38 0.008160586
39 *1:39 0.0191613
40 *1:40 0.04566878
41 *1:41 0.04681231
42 *1:42 0.01975483
43 *1:43 0.01975493
44 *1:44 0.07602416
45 *1:45 0.005645457
46 *1:46 0.006788989
47 *1:47 0.02125515
48 *1:48 0.02125525
49 *1:49 0.1638785
50 *1:50 0.08607545
51 *1:51 0.1667535
52 *1:52 0.01039514
53 *1:53 0.007216929
54 *1:54 0.007216929
55 *1:55 0.02756573
56 *1:56 0.06428934
57 *1:57 0.05522356
58 *1:58 0.006837178
59 *1:59 0.05649951
60 *1:60 0.05649951
61 *1:61 0.008587864
62 *1:62 0.009731396
63 *1:63 0.003959657
64 *1:64 0.1382605
65 *1:65 0.006605182
66 *1:66 0.007748714
67 *1:67 0.139431
68 *1:68 0.1562803
69 *1:69 0.1667735
70 *1:70 0.054353
71 *1:71 0.005245411
72 *1:72 0.008595861

*RES
0 *1 *1:72 0.3723215
1 *1:38 *1:37 0.2455357
2 *1:39 *1:38 0.5
3 *1:37 *18:CLK 1
4 *1:43 *1:42 0.7660715
5 *1:44 *1:43 0.5
6 *1:41 *1:40 1.874107
7 *1:42 *1:41 0.5
8 *1:40 *23:CLK 1
9 *1:48 *1:47 0.7660714
10 *1:49 *1:48 0.5
11 *1:49 *1:44 4.31875
12 *1:46 *1:45 0.2455357
13 *1:47 *1:46 0.5
14 *1:45 *19:CLK 1
15 *1:51 *1:50 0.5
16 *1:51 *1:39 0.7901786
17 *1:50 *1:49 4.861607
18 *1:35 *1:34 1.308929
19 *1:36 *1:35 0.5
20 *1:36 *1:31 4.31875
21 *1:33 *1:32 0.2325
22 *1:34 *1:33 0.5
23 *1:32 *21:CLK 1
24 *1:68 *1:67 0.5428572
25 *1:68 *1:51 7.600001
26 *1:69 *1:68 0.5
27 *1:69 *1:36 5.971429
28 *1:71 *1:70 0.5
29 *1:71 *1:12 0.2825
30 *1:70 *1:69 3.233036
31 *1:72 *1:71 0.5
32 *1:66 *1:65 0.2455357
33 *1:67 *1:66 0.5
34 *1:67 *1:64 7.326787
35 *1:65 *20:CLK 1
36 *1:13 *26:CLK 1
37 *1:30 *1:29 5.651786
38 *1:31 *1:30 0.5
39 *1:28 *1:27 7.03125
40 *1:29 *1:28 0.5
41 *1:27 *1:26 0.5
42 *1:27 *1:13 0.2341667
43 *1:26 *1:25 1.875893
44 *1:62 *1:61 0.2325
45 *1:63 *1:62 0.5
46 *1:63 *1:60 0.5
47 *1:61 *22:CLK 1
48 *1:15 *1:14 0.2325
49 *1:16 *1:15 0.5
50 *1:14 *24:CLK 1
51 *1:53 *16:CLK 1
52 *1:54 *17:CLK 1
53 *1:23 *1:22 0.5
54 *1:23 *1:16 0.255
55 *1:22 *1:21 4.294643
56 *1:20 *1:19 0.2325
57 *1:21 *1:20 0.5
58 *1:18 *1:17 1.851786
59 *1:19 *1:18 0.5
60 *1:17 *25:CLK 1
61 *1:60 *1:59 3.208929
62 *1:58 *1:57 0.5
63 *1:58 *1:52 0.2825
64 *1:59 *1:58 0.5
65 *1:57 *1:56 2.147321
66 *1:55 *1:54 0.2473214
67 *1:55 *1:53 0.2473214
68 *1:56 *1:55 0.2714286
69 *1:64 *1:63 0.2341667
70 *1:24 *1:23 4.31875
71 *1:25 *1:24 0.5428572

*END

*D_NET *2 2.613154 //LENGTH 30.399 LUMPCC 0 DR

*CONN
*P *2 I *L 0 *C 10.968 0.258
*I *39:A3 I *L 0.603158 *C 7.624 10.816
*I *37:A1 I *L 0.610165 *C 2.307 12.944
*I *16:SETB I *L 0.55078 *C 2.152 6.275
*I *17:SETB I *L 0.55078 *C 2.152 4.432
*I *18:SETB I *L 0.55078 *C 11.546 2.930
*I *27:A I *L 0.604022 *C 11.135 2.914
*N *2:7 *C 11.135 2.914
*N *2:8 *C 11.119 2.912
*N *2:9 *C 2.152 4.446
*N *2:10 *C 2.152 6.275
*N *2:11 *C 2.152 8.992
*N *2:12 *C 2.304 8.992
*N *2:13 *C 2.165 12.944
*N *2:14 *C 2.152 12.931
*N *2:15 *C 2.152 9.296
*N *2:16 *C 2.304 9.283
*N *2:17 *C 2.317 9.296
*N *2:18 *C 7.624 9.296
*N *2:19 *C 7.624 10.803
*N *2:20 *C 7.624 9.601
*N *2:21 *C 7.624 9.600
*N *2:22 *C 10.955 9.600
*N *2:23 *C 10.968 9.587
*N *2:24 *C 10.968 8.080
*N *2:25 *C 10.816 8.080
*N *2:26 *C 10.816 2.912
*N *2:27 *C 10.968 2.912

*CAP
0 *2 0.1117722
1 *39:A3 0.001
2 *37:A1 0.01405975
3 *16:SETB 0.001
4 *17:SETB 0.001
5 *18:SETB 0.02256477
6 *27:A 0.001
7 *2:7 0.0196422
8 *2:8 0.00342036
9 *2:9 0.06582879
10 *2:10 0.1734
11 *2:11 0.1147961
12 *2:12 0.02774878
13 *2:13 0.01246563
14 *2:14 0.1417112
15 *2:15 0.1504528
16 *2:16 0.02549383
17 *2:17 0.1976816
18 *2:18 0.2115162
19 *2:19 0.08879997
20 *2:20 0.0899435
21 *2:21 0.1192878
22 *2:22 0.1072322
23 *2:23 0.05483697
24 *2:24 0.06356616
25 *2:25 0.3346108
26 *2:26 0.3339339
27 *2:27 0.1243883

*RES
0 *2 *2:27 4.739285
1 *2:8 *2:7 1
2 *2:23 *2:22 0.5
3 *2:22 *2:21 5.947322
4 *2:20 *2:19 2.145536
5 *2:21 *2:20 0.5
6 *2:21 *2:18 0.5428572
7 *2:19 *39:A3 1
8 *2:16 *2:15 0.2714286
9 *2:16 *2:12 0.5187501
10 *2:17 *2:16 0.5
11 *2:13 *37:A1 0.2375
12 *2:14 *2:13 1
13 *2:10 *16:SETB 1
14 *2:10 *2:9 3.266965
15 *2:9 *17:SETB 1
16 *2:11 *2:10 4.851786
17 *2:12 *2:11 0.2714286
18 *2:15 *2:14 6.490179
19 *2:26 *2:25 9.228572
20 *2:27 *2:26 0.2714286
21 *2:27 *2:8 0.2696429
22 *2:25 *2:24 0.2714286
23 *2:24 *2:23 2.690179
24 *2:18 *2:17 9.475893
25 *2:7 *18:SETB 0.8226001
26 *2:7 *27:A 0.001

*END

*D_NET *3 0.2489616 //LENGTH 3.486 LUMPCC 0 DR

*CONN
*P *3 I *L 0 *C 11.880 0.272
*I *18:RSTB I *L 0.768783 *C 11.728 3.520
*N *3:2 *C 11.729 3.520
*N *3:3 *C 11.880 3.520

*CAP
0 *3 0.1182037
1 *18:RSTB 0.001
2 *3:2 0.0043158
3 *3:3 0.1254421

*RES
0 *3 *3:3 5.8
1 *3:2 *18:RSTB 1
2 *3:3 *3:2 0.2696429

*END

*D_NET *4 0.6641108 //LENGTH 7.896 LUMPCC 0 DR

*CONN
*P *4 I *L 0 *C 2.456 0.272
*I *16:RSTB I *L 0.768783 *C 2.304 6.805
*N *4:2 *C 2.304 6.793
*N *4:3 *C 2.304 6.822
*N *4:4 *C 2.317 6.864
*N *4:5 *C 2.747 6.864
*N *4:6 *C 2.760 6.851
*N *4:7 *C 2.760 1.848
*N *4:8 *C 2.456 1.848

*CAP
0 *4 0.05156081
1 *16:RSTB 0.001
2 *4:2 0.01235149
3 *4:3 0.01309649
4 *4:4 0.0172503
5 *4:5 0.0172503
6 *4:6 0.2337163
7 *4:7 0.2509098
8 *4:8 0.06697534

*RES
0 *4 *4:8 2.814286
1 *4:2 *16:RSTB 1
2 *4:3 *4:2 0.04916667
3 *4:4 *4:3 0.5
4 *4:6 *4:5 0.5
5 *4:5 *4:4 0.7660715
6 *4:8 *4:7 0.5428572
7 *4:7 *4:6 8.933037

*END

*D_NET *5 0.3889489 //LENGTH 5.631 LUMPCC 0 DR

*CONN
*P *5 I *L 0 *C 3.976 0.272
*I *17:RSTB I *L 0.768783 *C 2.304 3.824
*N *5:2 *C 2.304 3.642
*N *5:3 *C 2.304 3.812
*N *5:4 *C 2.317 3.824
*N *5:5 *C 3.963 3.824
*N *5:6 *C 3.976 3.811

*CAP
0 *5 0.1193418
1 *17:RSTB 0.001
2 *5:2 0.01381126
3 *5:3 0.009109665
4 *5:4 0.06406172
5 *5:5 0.06406172
6 *5:6 0.1175628

*RES
0 *5 *5:6 6.31875
1 *5:3 *17:RSTB 1
2 *5:3 *5:2 0.2825
3 *5:4 *5:3 0.5
4 *5:6 *5:5 0.5
5 *5:5 *5:4 2.9375

*END

*D_NET *6 0.6241224 //LENGTH 8.514 LUMPCC 0 DR

*CONN
*I *21:QN O *L 0 *C 11.424 6.560
*P *6 O *L 0 *C 13.400 0.272
*N *6:2 *C 13.400 4.723
*N *6:3 *C 13.386 4.736
*N *6:4 *C 11.438 4.736
*N *6:5 *C 11.424 4.750
*N *6:6 *C 11.424 6.559

*CAP
0 *21:QN 0.001
1 *6 0.1478798
2 *6:2 0.1461008
3 *6:3 0.06596951
4 *6:4 0.06596951
5 *6:5 0.09917316
6 *6:6 0.09802963

*RES
0 *21:QN *6:6 1
1 *6:6 *6:5 3.23125
2 *6:5 *6:4 0.5
3 *6:4 *6:3 3.480357
4 *6:2 *6 7.947322
5 *6:3 *6:2 0.5

*END

*D_NET *7 0.3356362 //LENGTH 4.238 LUMPCC 0 DR

*CONN
*I *20:QN O *L 0 *C 10.360 3.255
*P *7 O *L 0 *C 11.272 0.258
*N *7:2 *C 10.360 3.073
*N *7:3 *C 11.272 3.203
*N *7:4 *C 11.258 3.216
*N *7:5 *C 10.373 3.216
*N *7:6 *C 10.360 3.223

*CAP
0 *20:QN 0.001
1 *7 0.1252066
2 *7:2 0.009876691
3 *7:3 0.1234275
4 *7:4 0.03547516
5 *7:5 0.03547516
6 *7:6 0.005175091

*RES
0 *20:QN *7:6 1
1 *7:6 *7:5 0.5
2 *7:6 *7:2 0.25
3 *7:5 *7:4 1.580357
4 *7:3 *7 5.258036
5 *7:4 *7:3 0.5

*END

*D_NET *8 0.2263721 //LENGTH 3.415 LUMPCC 0 DR

*CONN
*I *22:QN O *L 0 *C 6.104 3.216
*P *8 O *L 0 *C 5.800 0.272
*N *8:2 *C 5.800 0.328
*N *8:3 *C 6.104 0.328
*N *8:4 *C 6.104 3.203

*CAP
0 *22:QN 0.001
1 *8 0.004620683
2 *8:2 0.01529039
3 *8:3 0.1095266
4 *8:4 0.09593438

*RES
0 *22:QN *8:4 1
1 *8:4 *8:3 5.133036
2 *8:2 *8 0.1
3 *8:3 *8:2 0.5428572

*END

*D_NET *9 0.3452201 //LENGTH 4.947 LUMPCC 0 DR

*CONN
*I *19:QN O *L 0 *C 15.376 4.128
*P *9 O *L 0 *C 17.422 6.864
*N *9:2 *C 15.389 6.864
*N *9:3 *C 15.376 6.851
*N *9:4 *C 15.376 4.142

*CAP
0 *19:QN 0.001
1 *9 0.06736532
2 *9:2 0.06558628
3 *9:3 0.106206
4 *9:4 0.1050625

*RES
0 *19:QN *9:4 1
1 *9:4 *9:3 4.837501
2 *9:3 *9:2 0.5
3 *9:2 *9 3.629464

*END

*D_NET *10 0.3630798 //LENGTH 5.513 LUMPCC 0 DR

*CONN
*I *23:QN O *L 0 *C 15.376 7.472
*P *10 O *L 0 *C 13.096 10.430
*N *10:2 *C 13.096 8.398
*N *10:3 *C 13.110 8.384
*N *10:4 *C 15.363 8.384
*N *10:5 *C 15.376 8.370
*N *10:6 *C 15.376 7.486

*CAP
0 *23:QN 0.001
1 *10 0.06817012
2 *10:2 0.06639108
3 *10:3 0.0714601
4 *10:4 0.0714601
5 *10:5 0.04287101
6 *10:6 0.04172747

*RES
0 *23:QN *10:6 1
1 *10:6 *10:5 1.580357
2 *10:5 *10:4 0.5
3 *10:4 *10:3 4.023214
4 *10:2 *10 3.629465
5 *10:3 *10:2 0.5

*END

*D_NET *11 0.3238135 //LENGTH 4.927 LUMPCC 0 DR

*CONN
*I *25:QN O *L 0 *C 5.952 14.160
*P *11 O *L 0 *C 10.582 14.160
*N *11:2 *C 5.952 13.978
*N *11:3 *C 5.966 14.160
*N *11:4 *C 5.952 14.148

*CAP
0 *25:QN 0.001
1 *11 0.1442808
2 *11:2 0.02036625
3 *11:3 0.1425018
4 *11:4 0.01566465

*RES
0 *25:QN *11:4 1
1 *11:4 *11:3 0.5
2 *11:4 *11:2 0.2825
3 *11:3 *11 8.243751

*END

*D_NET *12 0.6154045 //LENGTH 6.540 LUMPCC 0 DR

*CONN
*I *24:QN O *L 0 *C 5.952 10.816
*P *12 O *L 0 *C 5.800 17.118
*N *12:2 *C 5.800 10.816
*N *12:3 *C 5.951 10.816

*CAP
0 *24:QN 0.001
1 *12 0.3009791
2 *12:2 0.3086635
3 *12:3 0.0047619

*RES
0 *24:QN *12:3 1
1 *12:3 *12:2 0.2696429
2 *12:2 *12 11.25357

*END

*D_NET *13 0.2886442 //LENGTH 4.417 LUMPCC 0 DR

*CONN
*I *26:QN O *L 0 *C 7.472 13.248
*P *13 O *L 0 *C 10.568 12.336
*N *13:2 *C 7.472 13.066
*N *13:3 *C 8.992 12.336
*N *13:4 *C 8.992 13.248
*N *13:5 *C 7.486 13.248
*N *13:6 *C 7.472 13.236

*CAP
0 *26:QN 0.001
1 *13 0.04853847
2 *13:2 0.01148268
3 *13:3 0.07781356
4 *13:4 0.08704125
5 *13:5 0.05598713
6 *13:6 0.006781083

*RES
0 *26:QN *13:6 1
1 *13:6 *13:5 0.5
2 *13:6 *13:2 0.2825
3 *13:5 *13:4 2.690179
4 *13:4 *13:3 1.628571
5 *13:3 *13 2.814286

*END

*D_NET *48 0.2217728 //LENGTH 2.128 LUMPCC 0 DR

*CONN
*I *38:Y O *L 0 *C 11.273 7.636
*I *34:A I *L 0.427737 *C 11.880 6.329
*N *48:2 *C 11.880 6.712
*N *48:3 *C 11.879 6.712
*N *48:4 *C 11.424 6.712
*N *48:5 *C 11.424 7.611
*N *48:6 *C 11.412 7.624

*CAP
0 *38:Y 0.01296121
1 *34:A 0.02397512
2 *48:2 0.03050659
3 *48:3 0.01665403
4 *48:4 0.07307555
5 *48:5 0.05323326
6 *48:6 0.01136708

*RES
0 *38:Y *48:6 0.2308333
1 *48:2 *34:A 0.7670002
2 *48:3 *48:2 1
3 *48:6 *48:5 1
4 *48:5 *48:4 1.604464
5 *48:4 *48:3 0.8125

*END

*D_NET *49 0.4356336 //LENGTH 4.464 LUMPCC 0 DR

*CONN
*I *28:Y O *L 0 *C 6.535 6.256
*I *43:A I *L 0.434891 *C 3.976 7.744
*N *49:2 *C 3.976 7.624
*N *49:3 *C 3.976 7.612
*N *49:4 *C 3.976 7.472
*N *49:5 *C 3.990 7.472
*N *49:6 *C 6.243 7.472
*N *49:7 *C 6.256 7.459
*N *49:8 *C 6.256 6.878
*N *49:9 *C 6.256 6.864
*N *49:10 *C 6.256 6.256

*CAP
0 *28:Y 0.02132277
1 *43:A 0.009722923
2 *49:2 0.01536743
3 *49:3 0.008977787
4 *49:4 0.008792879
5 *49:5 0.09589567
6 *49:6 0.09589567
7 *49:7 0.0380296
8 *49:8 0.0382145
9 *49:9 0.04481075
10 *49:10 0.05860359

*RES
0 *28:Y *49:10 0.558
1 *49:2 *43:A 0.08363636
2 *49:3 *49:2 1
3 *49:4 *49:3 0.2325
4 *49:5 *49:4 0.5
5 *49:7 *49:6 0.5
6 *49:6 *49:5 4.023214
7 *49:9 *49:8 1
8 *49:8 *49:7 1.0375
9 *49:10 *49:9 1.216

*END

*D_NET *50 0.5647326 //LENGTH 5.781 LUMPCC 0 DR

*CONN
*I *29:Y O *L 0 *C 6.378 14.616
*I *40:A I *L 0.434891 *C 5.952 9.600
*N *50:2 *C 5.952 9.614
*N *50:3 *C 5.952 10.512
*N *50:4 *C 6.104 10.512
*N *50:5 *C 6.104 14.464
*N *50:6 *C 6.256 14.464
*N *50:7 *C 6.256 14.615
*N *50:8 *C 6.256 14.616

*CAP
0 *29:Y 0.01091032
1 *40:A 0.001
2 *50:2 0.05258266
3 *50:3 0.06501278
4 *50:4 0.2000673
5 *50:5 0.1975971
6 *50:6 0.01506157
7 *50:7 0.006430058
8 *50:8 0.01607079

*RES
0 *29:Y *50:8 0.244
1 *50:2 *40:A 1
2 *50:8 *50:7 1
3 *50:7 *50:6 0.2696429
4 *50:3 *50:2 1.604464
5 *50:4 *50:3 0.2714286
6 *50:5 *50:4 7.057143
7 *50:6 *50:5 0.2714286

*END

*D_NET *51 0.717979 //LENGTH 7.781 LUMPCC 0 DR

*CONN
*I *30:Y O *L 0 *C 10.186 4.432
*I *41:A I *L 0.434891 *C 7.016 7.776
*N *51:2 *C 10.056 4.250
*N *51:3 *C 7.017 7.776
*N *51:4 *C 7.472 7.776
*N *51:5 *C 7.472 5.496
*N *51:6 *C 7.168 5.496
*N *51:7 *C 7.168 4.446
*N *51:8 *C 7.182 4.432
*N *51:9 *C 10.043 4.432
*N *51:10 *C 10.056 4.420
*N *51:11 *C 10.069 4.432

*CAP
0 *30:Y 0.01342486
1 *41:A 0.001
2 *51:2 0.01228389
3 *51:3 0.01583264
4 *51:4 0.1408823
5 *51:5 0.1386514
6 *51:6 0.07432363
7 *51:7 0.05602027
8 *51:8 0.1224092
9 *51:9 0.1224092
10 *51:10 0.008910725
11 *51:11 0.01183073

*RES
0 *30:Y *51:11 0.195
1 *51:3 *41:A 1
2 *51:7 *51:6 1.875893
3 *51:8 *51:7 0.5
4 *51:10 *51:9 0.5
5 *51:10 *51:2 0.2825
6 *51:9 *51:8 5.108929
7 *51:11 *51:10 1
8 *51:4 *51:3 0.8125001
9 *51:6 *51:5 0.5428572
10 *51:5 *51:4 4.071429

*END

*D_NET *52 0.2117806 //LENGTH 2.490 LUMPCC 0 DR

*CONN
*I *31:Y O *L 0 *C 7.754 4.432
*I *44:A I *L 0.578227 *C 8.992 4.432
*N *52:2 *C 8.992 4.418
*N *52:3 *C 8.992 4.142
*N *52:4 *C 8.979 4.128
*N *52:5 *C 7.638 4.128
*N *52:6 *C 7.624 4.142
*N *52:7 *C 7.624 4.418
*N *52:8 *C 7.637 4.432

*CAP
0 *31:Y 0.01581027
1 *44:A 0.001
2 *52:2 0.01339562
3 *52:3 0.01453915
4 *52:4 0.0606622
5 *52:5 0.0606622
6 *52:6 0.01565505
7 *52:7 0.01583996
8 *52:8 0.01421614

*RES
0 *31:Y *52:8 0.195
1 *52:2 *44:A 1
2 *52:3 *52:2 0.4946429
3 *52:4 *52:3 0.5
4 *52:6 *52:5 0.5
5 *52:5 *52:4 2.394643
6 *52:8 *52:7 1
7 *52:7 *52:6 0.4946429

*END

*D_NET *53 0.7204386 //LENGTH 9.173 LUMPCC 0 DR

*CONN
*I *32:Y O *L 0 *C 8.688 12.792
*I *23:RSTB I *L 0.768783 *C 11.728 7.168
*N *53:2 *C 11.728 7.182
*N *53:3 *C 11.728 9.434
*N *53:4 *C 11.713 9.448
*N *53:5 *C 8.840 9.448
*N *53:6 *C 8.840 9.462
*N *53:7 *C 8.840 12.640
*N *53:8 *C 8.688 12.640
*N *53:9 *C 8.688 12.779

*CAP
0 *32:Y 0.001
1 *23:RSTB 0.001
2 *53:2 0.08473837
3 *53:3 0.0860668
4 *53:4 0.1146924
5 *53:5 0.1218109
6 *53:6 0.1358744
7 *53:7 0.1448598
8 *53:8 0.02035491
9 *53:9 0.01004104

*RES
0 *32:Y *53:9 1
1 *53:2 *23:RSTB 1
2 *53:4 *53:3 1
3 *53:3 *53:2 4.023215
4 *53:5 *53:4 5.746
5 *53:6 *53:5 1
6 *53:9 *53:8 0.2473214
7 *53:8 *53:7 0.2714286
8 *53:7 *53:6 5.675893

*END

*D_NET *54 0.3925113 //LENGTH 4.510 LUMPCC 0 DR

*CONN
*I *33:Y O *L 0 *C 5.485 9.270
*I *42:A I *L 0.434891 *C 2.912 9.660
*N *54:2 *C 2.912 9.904
*N *54:3 *C 2.913 9.904
*N *54:4 *C 3.063 9.904
*N *54:5 *C 3.078 9.904
*N *54:6 *C 5.787 9.904
*N *54:7 *C 5.800 9.891
*N *54:8 *C 5.800 9.258
*N *54:9 *C 5.785 9.245

*CAP
0 *33:Y 0.01898106
1 *42:A 0.01860901
2 *54:2 0.0248058
3 *54:3 0.005368875
4 *54:4 0.005183968
5 *54:5 0.1115513
6 *54:6 0.1115513
7 *54:7 0.03944407
8 *54:8 0.03962898
9 *54:9 0.01738693

*RES
0 *33:Y *54:9 0.6000001
1 *54:2 *42:A 0.567
2 *54:3 *54:2 1
3 *54:4 *54:3 0.2678571
4 *54:5 *54:4 0.5
5 *54:7 *54:6 0.5
6 *54:6 *54:5 4.837501
7 *54:9 *54:8 1
8 *54:8 *54:7 1.128572

*END

*D_NET *55 1.710701 //LENGTH 19.077 LUMPCC 0 DR

*CONN
*I *36:Y O *L 0 *C 7.320 4.280
*I *39:A1 I *L 0.539806 *C 8.080 10.968
*I *29:A1 I *L 0.621599 *C 6.560 14.464
*I *32:A1 I *L 0.621599 *C 8.536 12.944
*I *28:A1 I *L 0.6782 *C 6.712 6.104
*I *31:A2 I *L 0.591564 *C 8.080 4.432
*N *55:6 *C 8.080 4.433
*N *55:7 *C 8.080 5.027
*N *55:8 *C 8.066 5.040
*N *55:9 *C 6.711 6.104
*N *55:10 *C 8.550 12.944
*N *55:11 *C 8.839 12.944
*N *55:12 *C 8.827 12.944
*N *55:13 *C 8.384 12.944
*N *55:14 *C 8.384 12.336
*N *55:15 *C 6.560 14.450
*N *55:16 *C 6.560 12.350
*N *55:17 *C 6.574 12.336
*N *55:18 *C 7.776 12.336
*N *55:19 *C 7.777 12.336
*N *55:20 *C 8.080 12.336
*N *55:21 *C 8.080 10.968
*N *55:22 *C 8.080 9.918
*N *55:23 *C 8.066 9.904
*N *55:24 *C 6.421 9.904
*N *55:25 *C 6.408 9.891
*N *55:26 *C 6.408 6.104
*N *55:27 *C 6.408 5.054
*N *55:28 *C 6.421 5.040
*N *55:29 *C 7.320 5.040
*N *55:30 *C 7.320 5.027
*N *55:31 *C 7.320 4.293

*CAP
0 *36:Y 0.001
1 *39:A1 0.001
2 *29:A1 0.001
3 *32:A1 0.001
4 *28:A1 0.001
5 *31:A2 0.001
6 *55:6 0.03525427
7 *55:7 0.0363978
8 *55:8 0.03274583
9 *55:9 0.01062127
10 *55:10 0.01200285
11 *55:11 0.01314638
12 *55:12 0.0184706
13 *55:13 0.04079649
14 *55:14 0.04383403
15 *55:15 0.1216586
16 *55:16 0.1228021
17 *55:17 0.05102331
18 *55:18 0.07431049
19 *55:19 0.01153418
20 *55:20 0.09140943
21 *55:21 0.1399542
22 *55:22 0.06300151
23 *55:23 0.06946374
24 *55:24 0.06946374
25 *55:25 0.1694766
26 *55:26 0.2348147
27 *55:27 0.04823624
28 *55:28 0.03833864
29 *55:29 0.0728635
30 *55:30 0.04211215
31 *55:31 0.04096862

*RES
0 *36:Y *55:31 1
1 *55:21 *39:A1 1
2 *55:21 *55:20 2.442858
3 *55:11 *55:10 0.5169643
4 *55:12 *55:11 0.5
5 *55:10 *32:A1 1
6 *55:19 *55:18 0.5
7 *55:18 *55:17 2.147322
8 *55:18 *55:14 1.085714
9 *55:7 *55:6 1.059822
10 *55:8 *55:7 0.5
11 *55:6 *31:A2 1
12 *55:30 *55:29 0.5
13 *55:29 *55:28 1.604464
14 *55:29 *55:8 1.333036
15 *55:31 *55:30 1.308929
16 *55:16 *55:15 3.751786
17 *55:17 *55:16 0.5
18 *55:15 *29:A1 1
19 *55:9 *28:A1 1
20 *55:22 *55:21 1.875893
21 *55:23 *55:22 0.5
22 *55:25 *55:24 0.5
23 *55:24 *55:23 2.9375
24 *55:27 *55:26 1.875893
25 *55:28 *55:27 0.5
26 *55:26 *55:25 6.761607
27 *55:26 *55:9 0.5410715
28 *55:20 *55:19 0.5410715
29 *55:14 *55:13 1.085714
30 *55:13 *55:12 0.7901786

*END

*D_NET *56 1.163296 //LENGTH 12.117 LUMPCC 0 DR

*CONN
*I *37:Y O *L 0 *C 3.368 13.248
*I *33:A2 I *L 0.567721 *C 5.207 9.488
*I *32:A3 I *L 0.535888 *C 8.080 12.792
*I *29:A2 I *L 0.567721 *C 6.712 14.616
*N *56:4 *C 3.368 13.066
*N *56:5 *C 6.712 14.603
*N *56:6 *C 8.080 12.780
*N *56:7 *C 8.080 12.640
*N *56:8 *C 8.066 12.640
*N *56:9 *C 6.726 12.640
*N *56:10 *C 6.712 12.654
*N *56:11 *C 6.712 13.248
*N *56:12 *C 6.699 13.248
*N *56:13 *C 5.648 9.478
*N *56:14 *C 5.648 9.479
*N *56:15 *C 5.648 9.600
*N *56:16 *C 5.496 9.600
*N *56:17 *C 5.496 13.235
*N *56:18 *C 5.496 13.248
*N *56:19 *C 3.381 13.248
*N *56:20 *C 3.368 13.236

*CAP
0 *37:Y 0.001
1 *33:A2 0.03513899
2 *32:A3 0.001
3 *29:A2 0.001
4 *56:4 0.01138698
5 *56:5 0.08878135
6 *56:6 0.01159232
7 *56:7 0.01273585
8 *56:8 0.05698601
9 *56:9 0.05698601
10 *56:10 0.0434835
11 *56:11 0.1351874
12 *56:12 0.04355773
13 *56:13 0.04178856
14 *56:14 0.007426905
15 *56:15 0.01671328
16 *56:16 0.206353
17 *56:17 0.1968818
18 *56:18 0.116974
19 *56:19 0.07163719
20 *56:20 0.006685382

*RES
0 *37:Y *56:20 1
1 *56:5 *29:A2 1
2 *56:10 *56:9 0.5
3 *56:9 *56:8 2.394643
4 *56:7 *56:6 0.2325
5 *56:8 *56:7 0.5
6 *56:6 *32:A3 1
7 *56:11 *56:10 1.061607
8 *56:11 *56:5 2.41875
9 *56:12 *56:11 0.5
10 *56:17 *56:16 6.49018
11 *56:18 *56:17 0.5
12 *56:18 *56:12 2.147322
13 *56:13 *33:A2 0.882
14 *56:14 *56:13 1
15 *56:20 *56:19 0.5
16 *56:20 *56:4 0.2825
17 *56:19 *56:18 3.775893
18 *56:16 *56:15 0.2714286
19 *56:15 *56:14 0.2160715

*END

*D_NET *57 1.348501 //LENGTH 14.573 LUMPCC 0 DR

*CONN
*I *27:Y O *L 0 *C 10.816 3.110
*I *30:A4 I *L 0.587519 *C 10.816 4.460
*I *38:A4 I *L 0.462068 *C 10.208 7.776
*I *31:A4 I *L 0.587519 *C 8.414 4.457
*I *28:A3 I *L 0.602723 *C 7.031 6.129
*N *57:5 *C 7.305 6.104
*N *57:6 *C 7.320 6.091
*N *57:7 *C 7.320 5.952
*N *57:8 *C 7.333 5.952
*N *57:9 *C 8.688 5.952
*N *57:10 *C 8.673 4.432
*N *57:11 *C 8.688 4.446
*N *57:12 *C 8.688 6.243
*N *57:13 *C 8.688 6.255
*N *57:14 *C 8.688 6.270
*N *57:15 *C 8.688 7.472
*N *57:16 *C 8.992 7.472
*N *57:17 *C 8.992 7.763
*N *57:18 *C 9.005 7.776
*N *57:19 *C 10.208 7.644
*N *57:20 *C 10.208 7.764
*N *57:21 *C 10.208 7.776
*N *57:22 *C 10.651 7.776
*N *57:23 *C 10.664 7.764
*N *57:24 *C 10.664 7.593
*N *57:25 *C 10.664 4.446
*N *57:26 *C 10.678 4.432
*N *57:27 *C 10.955 4.432
*N *57:28 *C 10.956 4.432
*N *57:29 *C 10.968 4.418
*N *57:30 *C 10.968 3.534
*N *57:31 *C 10.953 3.520
*N *57:32 *C 10.816 3.520

*CAP
0 *27:Y 0.0233057
1 *30:A4 0.0147797
2 *38:A4 0.001
3 *31:A4 0.02337475
4 *28:A3 0.02225312
5 *57:5 0.02065899
6 *57:6 0.01581515
7 *57:7 0.01563025
8 *57:8 0.05444975
9 *57:9 0.06721834
10 *57:10 0.02178062
11 *57:11 0.08245327
12 *57:12 0.08226836
13 *57:13 0.00743159
14 *57:14 0.04966584
15 *57:15 0.06266905
16 *57:16 0.02546181
17 *57:17 0.0124586
18 *57:18 0.04451087
19 *57:19 0.01035796
20 *57:20 0.004173829
21 *57:21 0.05996555
22 *57:22 0.01515827
23 *57:23 0.01590524
24 *57:24 0.2075022
25 *57:25 0.1880389
26 *57:26 0.01380602
27 *57:27 0.01380602
28 *57:28 0.01318558
29 *57:29 0.05396591
30 *57:30 0.05574494
31 *57:31 0.0124023
32 *57:32 0.03730213

*RES
0 *27:Y *57:32 0.908
1 *57:31 *57:30 1
2 *57:30 *57:29 1.580357
3 *57:28 *30:A4 0.2325
4 *57:29 *57:28 1
5 *57:29 *57:27 0.5
6 *57:27 *57:26 0.4946429
7 *57:25 *57:24 5.620536
8 *57:26 *57:25 0.5
9 *57:23 *57:22 0.5
10 *57:22 *57:21 0.7901786
11 *57:20 *38:A4 1
12 *57:20 *57:19 0.1991667
13 *57:21 *57:20 0.5
14 *57:21 *57:18 2.147322
15 *57:18 *57:17 0.5
16 *57:17 *57:16 0.5187501
17 *57:13 *57:12 0.5
18 *57:13 *57:9 0.5410715
19 *57:14 *57:13 0.5
20 *57:12 *57:11 3.208929
21 *57:10 *31:A4 0.5180001
22 *57:11 *57:10 1
23 *57:7 *57:6 0.2325
24 *57:8 *57:7 0.5
25 *57:5 *28:A3 0.548
26 *57:6 *57:5 1
27 *57:32 *57:31 0.274
28 *57:24 *57:23 0.2841667
29 *57:9 *57:8 2.41875
30 *57:15 *57:14 2.147321
31 *57:16 *57:15 0.5428572

*END

*D_NET *58 0.4490057 //LENGTH 5.833 LUMPCC 0 DR

*CONN
*I *39:Y O *L 0 *C 6.408 10.664
*I *26:RSTB I *L 0.768783 *C 3.824 13.552
*N *58:2 *C 3.824 13.539
*N *58:3 *C 3.824 12.640
*N *58:4 *C 4.887 12.640
*N *58:5 *C 4.902 12.640
*N *58:6 *C 6.395 12.640
*N *58:7 *C 6.408 12.627
*N *58:8 *C 6.408 10.678

*CAP
0 *39:Y 0.001
1 *26:RSTB 0.001
2 *58:2 0.03332737
3 *58:3 0.07450729
4 *58:4 0.03647831
5 *58:5 0.05480918
6 *58:6 0.05480918
7 *58:7 0.09710892
8 *58:8 0.09596539

*RES
0 *39:Y *58:8 1
1 *58:2 *26:RSTB 1
2 *58:4 *58:3 1.898214
3 *58:5 *58:4 0.5
4 *58:7 *58:6 0.5
5 *58:6 *58:5 2.666071
6 *58:8 *58:7 3.480357
7 *58:3 *58:2 1.604465

*END

*D_NET *59 1.40065 //LENGTH 16.224 LUMPCC 0 DR

*CONN
*I *16:QN O *L 0 *C 5.952 6.560
*I *28:A4 I *L 0.587519 *C 7.198 6.281
*I *38:A3 I *L 0.475427 *C 10.360 8.080
*I *29:A3 I *L 0.535888 *C 7.016 14.616
*N *59:4 *C 5.952 6.428
*N *59:5 *C 7.016 14.603
*N *59:6 *C 7.016 14.464
*N *59:7 *C 6.864 14.464
*N *59:8 *C 10.360 8.081
*N *59:9 *C 10.360 8.370
*N *59:10 *C 10.347 8.384
*N *59:11 *C 9.462 8.384
*N *59:12 *C 9.448 8.370
*N *59:13 *C 9.448 7.486
*N *59:14 *C 9.434 7.472
*N *59:15 *C 7.320 6.256
*N *59:16 *C 7.320 6.257
*N *59:17 *C 7.320 7.459
*N *59:18 *C 7.320 7.472
*N *59:19 *C 6.878 7.472
*N *59:20 *C 6.864 7.472
*N *59:21 *C 6.864 6.574
*N *59:22 *C 6.851 6.560
*N *59:23 *C 5.966 6.560
*N *59:24 *C 5.952 6.548

*CAP
0 *16:QN 0.001
1 *28:A4 0.01117299
2 *38:A3 0.001
3 *29:A3 0.001
4 *59:4 0.01156873
5 *59:5 0.005395139
6 *59:6 0.01510039
7 *59:7 0.3150574
8 *59:8 0.01063345
9 *59:9 0.01177698
10 *59:10 0.03104304
11 *59:11 0.03104304
12 *59:12 0.04001071
13 *59:13 0.04001071
14 *59:14 0.0906008
15 *59:15 0.01894582
16 *59:16 0.07362211
17 *59:17 0.0734372
18 *59:18 0.1123481
19 *59:19 0.01996827
20 *59:20 0.3597628
21 *59:21 0.05148809
22 *59:22 0.03538125
23 *59:23 0.03389873
24 *59:24 0.005384598

*RES
0 *16:QN *59:24 1
1 *59:13 *59:12 1.580357
2 *59:14 *59:13 0.5
3 *59:12 *59:11 0.5
4 *59:11 *59:10 1.580357
5 *59:9 *59:8 0.5169643
6 *59:10 *59:9 0.5
7 *59:8 *38:A3 1
8 *59:17 *59:16 2.145536
9 *59:18 *59:17 0.5
10 *59:18 *59:14 3.775893
11 *59:15 *28:A4 0.244
12 *59:16 *59:15 1
13 *59:5 *29:A3 1
14 *59:20 *59:19 0.5
15 *59:20 *59:7 12.48571
16 *59:19 *59:18 0.7901786
17 *59:21 *59:20 1.604464
18 *59:22 *59:21 0.5
19 *59:24 *59:23 0.5
20 *59:24 *59:4 0.1991667
21 *59:23 *59:22 1.580357
22 *59:7 *59:6 0.2714286
23 *59:6 *59:5 0.2473214

*END

*D_NET *60 1.632985 //LENGTH 18.187 LUMPCC 0 DR

*CONN
*I *17:QN O *L 0 *C 5.952 4.128
*I *33:A3 I *L 0.535888 *C 4.858 9.473
*I *38:A2 I *L 0.475405 *C 10.512 7.801
*I *30:A3 I *L 0.602723 *C 10.694 4.609
*N *60:4 *C 10.968 4.584
*N *60:5 *C 10.968 4.585
*N *60:6 *C 10.968 6.851
*N *60:7 *C 10.955 6.864
*N *60:8 *C 10.512 7.624